@<TRIPOS>MOLECULE
QRU
   49    52     1     0     0
SMALL
gas


@<TRIPOS>ATOM
      1 C1         -49.7390   -29.0190     6.5240 ca         1 QRU       0.033935
      2 C2         -49.8310   -29.1070     4.1400 ca         1 QRU      -0.047811
      3 C3         -50.4970   -29.0720     5.3590 ca         1 QRU      -0.039894
      4 C4         -48.4450   -29.0970     4.1170 ca         1 QRU       0.037172
      5 C5         -47.7820   -29.1950     2.7490 c          1 QRU       0.243385
      6 C6         -45.6900   -29.6890     1.4750 c5         1 QRU       0.056647
      7 C7         -45.5240   -28.3580     0.7540 ca         1 QRU      -0.021214
      8 C8         -46.4620   -27.6160     0.0280 ca         1 QRU      -0.056682
      9 C9         -51.7210   -29.1020     8.1160 c          1 QRU       0.302439
     10 C10        -44.1990   -31.1670     2.8010 c          1 QRU       0.047014
     11 C11        -44.2750   -30.1910     1.6370 c5         1 QRU       0.025300
     12 C12        -43.4330   -28.9220     1.8000 c5         1 QRU      -0.014732
     13 C13        -44.2260   -27.9000     0.9460 ca         1 QRU      -0.012122
     14 C14        -43.8630   -26.6710     0.3850 ca         1 QRU       0.074792
     15 C15        -44.8040   -25.9500    -0.3380 ca         1 QRU      -0.031772
     16 C16        -46.0890   -26.4110    -0.5260 ca         1 QRU      -0.059311
     17 C17        -53.3120   -29.2480    10.0250 cx         1 QRU       0.024027
     18 C18        -53.3800   -29.1550    11.5440 cx         1 QRU      -0.032870
     19 C19        -53.6510   -30.4910    10.8480 cx         1 QRU      -0.032870
     20 C20        -48.3570   -29.0240     6.5000 ca         1 QRU      -0.039894
     21 C21        -47.6950   -29.0760     5.2880 ca         1 QRU      -0.047811
     22 N1         -46.3610   -29.5050     2.7430 ns         1 QRU      -0.303729
     23 N2         -50.3150   -29.0460     7.8380 ns         1 QRU      -0.269209
     24 N3         -51.9570   -29.2160     9.5120 ns         1 QRU      -0.296183
     25 O1         -43.7810   -30.7670     3.9190 o          1 QRU      -0.549767
     26 O2         -42.5780   -26.1380     0.5300 oh         1 QRU      -0.360650
     27 O3         -52.5830   -29.0310     7.3190 o          1 QRU      -0.253965
     28 O4         -48.4100   -29.1260     1.7430 o          1 QRU      -0.271935
     29 O5         -44.5460   -32.3730     2.6250 o          1 QRU      -0.549767
     30 H1         -50.4000   -29.1420     3.1990 ha         1 QRU       0.063171
     31 H2         -51.5960   -29.0860     5.4020 ha         1 QRU       0.064288
     32 H3         -46.3160   -30.4080     0.9260 h1         1 QRU       0.056249
     33 H4         -47.4880   -27.9910    -0.0990 ha         1 QRU       0.062650
     34 H5         -43.8980   -30.7720     0.7820 hc         1 QRU       0.039121
     35 H6         -43.3810   -28.6090     2.8530 hc         1 QRU       0.032462
     36 H7         -42.3840   -29.0410     1.4900 hc         1 QRU       0.032462
     37 H8         -44.5150   -24.9820    -0.7740 ha         1 QRU       0.065046
     38 H9         -46.8100   -25.8230    -1.1130 ha         1 QRU       0.062380
     39 H10        -53.7890   -28.7270     9.1820 h1         1 QRU       0.050420
     40 H11        -52.4580   -29.0160    12.1280 hc         1 QRU       0.028620
     41 H12        -53.9290   -28.5260    12.2610 hc         1 QRU       0.028620
     42 H13        -54.6700   -30.9040    10.8270 hc         1 QRU       0.028620
     43 H14        -53.2410   -31.5090    10.9280 hc         1 QRU       0.028620
     44 H15        -47.7870   -28.9870     7.4400 ha         1 QRU       0.064288
     45 H16        -46.5960   -29.1000     5.2500 ha         1 QRU       0.063171
     46 H17        -45.8410   -29.5920     3.6280 hn         1 QRU       0.150365
     47 H18        -49.6710   -29.0230     8.6410 hn         1 QRU       0.157352
     48 H19        -51.1610   -29.2760    10.1630 hn         1 QRU       0.151314
     49 H20        -42.3550   -25.2650     0.1200 ho         1 QRU       0.218261
@<TRIPOS>BOND
     1     1     3 ar
     2     2     3 ar
     3     2     4 ar
     4     4     5 1
     5     6     7 1
     6     7     8 ar
     7     6    11 1
     8    11    10 1
     9    11    12 1
    10     7    13 ar
    11    12    13 1
    12    13    14 ar
    13    14    15 ar
    14     8    16 ar
    15    15    16 ar
    16    17    18 1
    17    17    19 1
    18    18    19 1
    19     1    20 ar
    20     4    21 ar
    21    20    21 ar
    22     5    22 1
    23     6    22 1
    24     1    23 1
    25     9    23 1
    26     9    24 1
    27    17    24 1
    28    10    25 1
    29    14    26 1
    30     9    27 2
    31     5    28 2
    32    10    29 1
    33     2    30 1
    34     3    31 1
    35     6    32 1
    36     8    33 1
    37    11    34 1
    38    12    35 1
    39    12    36 1
    40    15    37 1
    41    16    38 1
    42    17    39 1
    43    18    40 1
    44    18    41 1
    45    19    42 1
    46    19    43 1
    47    20    44 1
    48    21    45 1
    49    22    46 1
    50    23    47 1
    51    24    48 1
    52    26    49 1
@<TRIPOS>SUBSTRUCTURE
     1 QRU         1 TEMP              0 ****  ****    0 ROOT